#### CIF created by Crystallographica 2 ####

data_TitaniumOxide

_audit_creation_method                    'Crystallographica 2' 
_cell_angle_alpha                         90 
_cell_angle_beta                          90 
_cell_angle_gamma                         90 
_cell_formula_units_Z                     2 
_cell_length_a                            4.594 
_cell_length_b                            4.594 
_cell_length_c                            2.959 
_cell_volume                              62.4492 
_cgraph_comments                         'Ueber die Verfeinerung der Kristallstrukturbestimmung 
     einiger Vertreter des Rutiltyps: Ti O2. Sn O2. Ge O2 und Mg 
     F2
'
_cgraph_title                            'Titanium Oxide'
_chemical_formula_sum                    'Ti O2'
_symmetry_space_group_name_H-M           'P 42/m n m'
_symmetry_space_group_name_Hall          '-P 4n 2n'

loop_
        _symmetry_equiv_pos_as_xyz
        'x, y, z'
        '-x, -y, -z'
        '-y+1/2, x+1/2, z+1/2'
        'y+1/2, -x+1/2, -z+1/2'
        '-x, -y, z'
        'x, y, -z'
        'y+1/2, -x+1/2, z+1/2'
        '-y+1/2, x+1/2, -z+1/2'
        'x+1/2, -y+1/2, -z+1/2'
        '-x+1/2, y+1/2, z+1/2'
        '-x+1/2, y+1/2, -z+1/2'
        'x+1/2, -y+1/2, z+1/2'
        'y, x, -z'
        '-y, -x, z'
        '-y, -x, -z'
        'y, x, z'

loop_
        _atom_site_label
        _atom_site_type_symbol
        _atom_site_fract_x
        _atom_site_fract_y
        _atom_site_fract_z
        _atom_site_U_iso_or_equiv
        _atom_site_thermal_displace_type
        _atom_site_occupancy
        Ti1 Ti4+ 0 0 0 0.0088656 Uiso 1
        O1 O2- 0.306 0.306 0 0.0088656 Uiso 1

_eof

#### End of Crystallographic Information File ####
